*SPEF "IEEE 1481-1998"
*DESIGN "DLX"
*DATE "Wed Sep 14 17:33:42 2016"
*VENDOR "Cadence Design Systems, Inc."
*PROGRAM "Encounter"
*VERSION "13.13-s017_1"
*DESIGN_FLOW "COUPLING C" "PIN_CAP NONE" "NAME_SCOPE LOCAL"
*DIVIDER /
*DELIMITER :
*BUS_DELIMITER []
*T_UNIT 1 NS
*C_UNIT 1 PF
*R_UNIT 1 OHM
*L_UNIT 1 HENRY

// MMMC spef file for corner 'standard'

*NAME_MAP

*1 u_cu/n100
*2 u_cu/n101
*3 u_cu/n102
*4 u_cu/n103
*5 u_cu/n104
*6 u_cu/n105
*7 u_cu/n106
*8 u_cu/n107
*9 u_cu/n108
*10 u_cu/n109
*11 u_cu/n110
*12 u_cu/n111
*13 u_cu/n112
*14 u_cu/n113
*15 u_cu/n114
*16 u_cu/n115
*17 u_cu/n116
*18 u_cu/n117
*19 u_cu/n118
*20 u_cu/n119
*21 u_cu/n120
*22 u_cu/n121
*23 u_cu/n122
*24 u_cu/n123
*25 u_cu/n124
*26 u_cu/n125
*27 u_cu/n126
*28 u_cu/n127
*29 u_cu/n29
*30 u_cu/n30
*31 u_cu/n31
*32 u_cu/n32
*33 u_cu/n33
*34 u_cu/n34
*35 u_cu/n35
*36 u_cu/n36
*37 u_cu/n37
*38 u_cu/n38
*39 u_cu/n39
*40 u_cu/n40
*41 u_cu/n41
*42 u_cu/n42
*43 u_cu/n43
*44 u_cu/n44
*45 u_cu/n45
*46 u_cu/n46
*47 u_cu/n47
*48 u_cu/n48
*49 u_cu/n49
*50 u_cu/n50
*51 u_cu/n51
*52 u_cu/n52
*53 u_cu/n53
*54 u_cu/n54
*55 u_cu/n55
*56 u_cu/n56
*57 u_cu/n57
*58 u_cu/n58
*59 u_cu/n59
*60 u_cu/n60
*61 u_cu/n61
*62 u_cu/n62
*63 u_cu/n63
*64 u_cu/n64
*65 u_cu/n65
*66 u_cu/n66
*67 u_cu/n67
*68 u_cu/n68
*69 u_cu/n69
*70 u_cu/n70
*71 u_cu/n71
*72 u_cu/n72
*73 u_cu/n73
*74 u_cu/n74
*75 u_cu/n75
*76 u_cu/n76
*77 u_cu/n77
*78 u_cu/n78
*79 u_cu/n79
*80 u_cu/n80
*81 u_cu/n81
*82 u_cu/n82
*83 u_cu/n83
*84 u_cu/n84
*85 u_cu/n85
*86 u_cu/n86
*87 u_cu/n87
*88 u_cu/n88
*89 u_cu/n89
*90 u_cu/n90
*91 u_cu/n91
*92 u_cu/n92
*93 u_cu/n93
*94 u_cu/n94
*95 u_cu/n95
*96 u_cu/n96
*97 u_cu/n97
*98 u_cu/n98
*99 u_cu/n99
*100 u_DataPath/u_memwbreg/N3
*101 u_DataPath/u_memwbreg/N4
*102 u_DataPath/u_memwbreg/N5
*103 u_DataPath/u_memwbreg/N70
*104 u_DataPath/u_memwbreg/N71
*105 u_DataPath/u_memwbreg/N72
*106 u_DataPath/u_memwbreg/N73
*107 u_DataPath/u_memwbreg/N74
*108 u_DataPath/u_memwbreg/n74
*109 u_DataPath/u_memory/dram/mmu_in0/FE_OFN6_n21
*110 u_DataPath/u_memory/dram/mmu_in0/n10
*111 u_DataPath/u_memory/dram/mmu_in0/n12
*112 u_DataPath/u_memory/dram/mmu_in0/n13
*113 u_DataPath/u_memory/dram/mmu_in0/n14
*114 u_DataPath/u_memory/dram/mmu_in0/n15
*115 u_DataPath/u_memory/dram/mmu_in0/n16
*116 u_DataPath/u_memory/dram/mmu_in0/n17
*117 u_DataPath/u_memory/dram/mmu_in0/n18
*118 u_DataPath/u_memory/dram/mmu_in0/n19
*119 u_DataPath/u_memory/dram/mmu_in0/n20
*120 u_DataPath/u_memory/dram/mmu_in0/n21
*121 u_DataPath/u_memory/dram/mmu_in0/n22
*122 u_DataPath/u_memory/dram/mmu_in0/n23
*123 u_DataPath/u_memory/dram/mmu_in0/n24
*124 u_DataPath/u_memory/dram/mmu_in0/n25
*125 u_DataPath/u_memory/dram/mmu_in0/n26
*126 u_DataPath/u_memory/dram/mmu_in0/n27
*127 u_DataPath/u_memory/dram/mmu_in0/n28
*128 u_DataPath/u_memory/dram/mmu_in0/n29
*129 u_DataPath/u_memory/dram/mmu_in0/n30
*130 u_DataPath/u_memory/dram/mmu_in0/n31
*131 u_DataPath/u_memory/dram/mmu_in0/n32
*132 u_DataPath/u_ifidreg/FE_OFN7_n65
*133 u_DataPath/u_ifidreg/FE_PHN109_n195
*134 u_DataPath/u_ifidreg/FE_PHN110_n193
*135 u_DataPath/u_ifidreg/FE_PHN111_n191
*136 u_DataPath/u_ifidreg/FE_PHN11_flush_i
*137 u_DataPath/u_ifidreg/FE_PHN12_n197
*138 u_DataPath/u_ifidreg/FE_PHN13_n188
*139 u_DataPath/u_ifidreg/FE_PHN24_n195
*140 u_DataPath/u_ifidreg/FE_PHN25_n193
*141 u_DataPath/u_ifidreg/FE_PHN26_n191
*142 u_DataPath/u_ifidreg/FE_PHN27_n190
*143 u_DataPath/u_ifidreg/FE_PHN28_n192
*144 u_DataPath/u_ifidreg/FE_PHN29_n174
*145 u_DataPath/u_ifidreg/FE_PHN30_n182
*146 u_DataPath/u_ifidreg/FE_PHN31_n187
*147 u_DataPath/u_ifidreg/FE_PHN32_n186
*148 u_DataPath/u_ifidreg/FE_PHN33_n181
*149 u_DataPath/u_ifidreg/FE_PHN34_n179
*150 u_DataPath/u_ifidreg/FE_PHN35_n189
*151 u_DataPath/u_ifidreg/FE_PHN36_n194
*152 u_DataPath/u_ifidreg/FE_PHN37_n185
*153 u_DataPath/u_ifidreg/FE_PHN38_n175
*154 u_DataPath/u_ifidreg/FE_PHN42_n183
*155 u_DataPath/u_ifidreg/FE_PHN43_n184
*156 u_DataPath/u_ifidreg/FE_PHN45_flush_i
*157 u_DataPath/u_ifidreg/FE_PHN73_n195
*158 u_DataPath/u_ifidreg/FE_PHN74_n193
*159 u_DataPath/u_ifidreg/FE_PHN75_n191
*160 u_DataPath/u_ifidreg/FE_PHN77_n195
*161 u_DataPath/u_ifidreg/FE_PHN78_n193
*162 u_DataPath/u_ifidreg/FE_PHN79_n191
*163 u_DataPath/u_ifidreg/n100
*164 u_DataPath/u_ifidreg/n101
*165 u_DataPath/u_ifidreg/n102
*166 u_DataPath/u_ifidreg/n103
*167 u_DataPath/u_ifidreg/n104
*168 u_DataPath/u_ifidreg/n105
*169 u_DataPath/u_ifidreg/n106
*170 u_DataPath/u_ifidreg/n107
*171 u_DataPath/u_ifidreg/n108
*172 u_DataPath/u_ifidreg/n109
*173 u_DataPath/u_ifidreg/n110
*174 u_DataPath/u_ifidreg/n111
*175 u_DataPath/u_ifidreg/n112
*176 u_DataPath/u_ifidreg/n113
*177 u_DataPath/u_ifidreg/n114
*178 u_DataPath/u_ifidreg/n115
*179 u_DataPath/u_ifidreg/n116
*180 u_DataPath/u_ifidreg/n117
*181 u_DataPath/u_ifidreg/n118
*182 u_DataPath/u_ifidreg/n119
*183 u_DataPath/u_ifidreg/n120
*184 u_DataPath/u_ifidreg/n121
*185 u_DataPath/u_ifidreg/n122
*186 u_DataPath/u_ifidreg/n123
*187 u_DataPath/u_ifidreg/n124
*188 u_DataPath/u_ifidreg/n125
*189 u_DataPath/u_ifidreg/n126
*190 u_DataPath/u_ifidreg/n127
*191 u_DataPath/u_ifidreg/n128
*192 u_DataPath/u_ifidreg/n129
*193 u_DataPath/u_ifidreg/n130
*194 u_DataPath/u_ifidreg/n131
*195 u_DataPath/u_ifidreg/n132
*196 u_DataPath/u_ifidreg/n133
*197 u_DataPath/u_ifidreg/n134
*198 u_DataPath/u_ifidreg/n135
*199 u_DataPath/u_ifidreg/n136
*200 u_DataPath/u_ifidreg/n137
*201 u_DataPath/u_ifidreg/n138
*202 u_DataPath/u_ifidreg/n139
*203 u_DataPath/u_ifidreg/n140
*204 u_DataPath/u_ifidreg/n141
*205 u_DataPath/u_ifidreg/n142
*206 u_DataPath/u_ifidreg/n143
*207 u_DataPath/u_ifidreg/n144
*208 u_DataPath/u_ifidreg/n145
*209 u_DataPath/u_ifidreg/n146
*210 u_DataPath/u_ifidreg/n147
*211 u_DataPath/u_ifidreg/n148
*212 u_DataPath/u_ifidreg/n149
*213 u_DataPath/u_ifidreg/n150
*214 u_DataPath/u_ifidreg/n151
*215 u_DataPath/u_ifidreg/n152
*216 u_DataPath/u_ifidreg/n153
*217 u_DataPath/u_ifidreg/n154
*218 u_DataPath/u_ifidreg/n155
*219 u_DataPath/u_ifidreg/n156
*220 u_DataPath/u_ifidreg/n157
*221 u_DataPath/u_ifidreg/n158
*222 u_DataPath/u_ifidreg/n159
*223 u_DataPath/u_ifidreg/n160
*224 u_DataPath/u_ifidreg/n161
*225 u_DataPath/u_ifidreg/n162
*226 u_DataPath/u_ifidreg/n163
*227 u_DataPath/u_ifidreg/n164
*228 u_DataPath/u_ifidreg/n165
*229 u_DataPath/u_ifidreg/n166
*230 u_DataPath/u_ifidreg/n167
*231 u_DataPath/u_ifidreg/n168
*232 u_DataPath/u_ifidreg/n169
*233 u_DataPath/u_ifidreg/n170
*234 u_DataPath/u_ifidreg/n171
*235 u_DataPath/u_ifidreg/n172
*236 u_DataPath/u_ifidreg/n173
*237 u_DataPath/u_ifidreg/n174
*238 u_DataPath/u_ifidreg/n175
*239 u_DataPath/u_ifidreg/n176
*240 u_DataPath/u_ifidreg/n177
*241 u_DataPath/u_ifidreg/n178
*242 u_DataPath/u_ifidreg/n179
*243 u_DataPath/u_ifidreg/n180
*244 u_DataPath/u_ifidreg/n181
*245 u_DataPath/u_ifidreg/n182
*246 u_DataPath/u_ifidreg/n183
*247 u_DataPath/u_ifidreg/n184
*248 u_DataPath/u_ifidreg/n185
*249 u_DataPath/u_ifidreg/n186
*250 u_DataPath/u_ifidreg/n187
*251 u_DataPath/u_ifidreg/n188
*252 u_DataPath/u_ifidreg/n189
*253 u_DataPath/u_ifidreg/n190
*254 u_DataPath/u_ifidreg/n191
*255 u_DataPath/u_ifidreg/n192
*256 u_DataPath/u_ifidreg/n193
*257 u_DataPath/u_ifidreg/n194
*258 u_DataPath/u_ifidreg/n195
*259 u_DataPath/u_ifidreg/n196
*260 u_DataPath/u_ifidreg/n197
*261 u_DataPath/u_ifidreg/n198
*262 u_DataPath/u_ifidreg/n199
*263 u_DataPath/u_ifidreg/n200
*264 u_DataPath/u_ifidreg/n201
*265 u_DataPath/u_ifidreg/n202
*266 u_DataPath/u_ifidreg/n203
*267 u_DataPath/u_ifidreg/n204
*268 u_DataPath/u_ifidreg/n205
*269 u_DataPath/u_ifidreg/n206
*270 u_DataPath/u_ifidreg/n207
*271 u_DataPath/u_ifidreg/n208
*272 u_DataPath/u_ifidreg/n209
*273 u_DataPath/u_ifidreg/n210
*274 u_DataPath/u_ifidreg/n211
*275 u_DataPath/u_ifidreg/n212
*276 u_DataPath/u_ifidreg/n213
*277 u_DataPath/u_ifidreg/n214
*278 u_DataPath/u_ifidreg/n215
*279 u_DataPath/u_ifidreg/n216
*280 u_DataPath/u_ifidreg/n217
*281 u_DataPath/u_ifidreg/n218
*282 u_DataPath/u_ifidreg/n219
*283 u_DataPath/u_ifidreg/n220
*284 u_DataPath/u_ifidreg/n221
*285 u_DataPath/u_ifidreg/n222
*286 u_DataPath/u_ifidreg/n223
*287 u_DataPath/u_ifidreg/n224
*288 u_DataPath/u_ifidreg/n225
*289 u_DataPath/u_ifidreg/n226
*290 u_DataPath/u_ifidreg/n227
*291 u_DataPath/u_ifidreg/n228
*292 u_DataPath/u_ifidreg/n229
*293 u_DataPath/u_ifidreg/n230
*294 u_DataPath/u_ifidreg/n231
*295 u_DataPath/u_ifidreg/n232
*296 u_DataPath/u_ifidreg/n233
*297 u_DataPath/u_ifidreg/n234
*298 u_DataPath/u_ifidreg/n235
*299 u_DataPath/u_ifidreg/n236
*300 u_DataPath/u_ifidreg/n237
*301 u_DataPath/u_ifidreg/n238
*302 u_DataPath/u_ifidreg/n239
*303 u_DataPath/u_ifidreg/n240
*304 u_DataPath/u_ifidreg/n241
*305 u_DataPath/u_ifidreg/n242
*306 u_DataPath/u_ifidreg/n243
*307 u_DataPath/u_ifidreg/n244
*308 u_DataPath/u_ifidreg/n245
*309 u_DataPath/u_ifidreg/n246
*310 u_DataPath/u_ifidreg/n247
*311 u_DataPath/u_ifidreg/n248
*312 u_DataPath/u_ifidreg/n249
*313 u_DataPath/u_ifidreg/n250
*314 u_DataPath/u_ifidreg/n251
*315 u_DataPath/u_ifidreg/n252
*316 u_DataPath/u_ifidreg/n253
*317 u_DataPath/u_ifidreg/n254
*318 u_DataPath/u_ifidreg/n255
*319 u_DataPath/u_ifidreg/n256
*320 u_DataPath/u_ifidreg/n257
*321 u_DataPath/u_ifidreg/n258
*322 u_DataPath/u_ifidreg/n259
*323 u_DataPath/u_ifidreg/n64
*324 u_DataPath/u_ifidreg/n65
*325 u_DataPath/u_ifidreg/n66
*326 u_DataPath/u_ifidreg/n67
*327 u_DataPath/u_ifidreg/n68
*328 u_DataPath/u_ifidreg/n69
*329 u_DataPath/u_ifidreg/n70
*330 u_DataPath/u_ifidreg/n71
*331 u_DataPath/u_ifidreg/n72
*332 u_DataPath/u_ifidreg/n73
*333 u_DataPath/u_ifidreg/n74
*334 u_DataPath/u_ifidreg/n75
*335 u_DataPath/u_ifidreg/n76
*336 u_DataPath/u_ifidreg/n77
*337 u_DataPath/u_ifidreg/n78
*338 u_DataPath/u_ifidreg/n79
*339 u_DataPath/u_ifidreg/n80
*340 u_DataPath/u_ifidreg/n81
*341 u_DataPath/u_ifidreg/n82
*342 u_DataPath/u_ifidreg/n83
*343 u_DataPath/u_ifidreg/n84
*344 u_DataPath/u_ifidreg/n85
*345 u_DataPath/u_ifidreg/n86
*346 u_DataPath/u_ifidreg/n87
*347 u_DataPath/u_ifidreg/n88
*348 u_DataPath/u_ifidreg/n89
*349 u_DataPath/u_ifidreg/n90
*350 u_DataPath/u_ifidreg/n91
*351 u_DataPath/u_ifidreg/n92
*352 u_DataPath/u_ifidreg/n93
*353 u_DataPath/u_ifidreg/n94
*354 u_DataPath/u_ifidreg/n95
*355 u_DataPath/u_ifidreg/n96
*356 u_DataPath/u_ifidreg/n97
*357 u_DataPath/u_ifidreg/n98
*358 u_DataPath/u_ifidreg/n99
*359 u_DataPath/u_idexreg/FE_OFN0_n215
*360 u_DataPath/u_idexreg/N10
*361 u_DataPath/u_idexreg/N11
*362 u_DataPath/u_idexreg/N12
*363 u_DataPath/u_idexreg/N13
*364 u_DataPath/u_idexreg/N14
*365 u_DataPath/u_idexreg/N15
*366 u_DataPath/u_idexreg/N16
*367 u_DataPath/u_idexreg/N17
*368 u_DataPath/u_idexreg/N18
*369 u_DataPath/u_idexreg/N185
*370 u_DataPath/u_idexreg/N186
*371 u_DataPath/u_idexreg/N187
*372 u_DataPath/u_idexreg/N188
*373 u_DataPath/u_idexreg/N189
*374 u_DataPath/u_idexreg/N19
*375 u_DataPath/u_idexreg/N190
*376 u_DataPath/u_idexreg/N191
*377 u_DataPath/u_idexreg/N192
*378 u_DataPath/u_idexreg/N193
*379 u_DataPath/u_idexreg/N194
*380 u_DataPath/u_idexreg/N195
*381 u_DataPath/u_idexreg/N196
*382 u_DataPath/u_idexreg/N197
*383 u_DataPath/u_idexreg/N198
*384 u_DataPath/u_idexreg/N199
*385 u_DataPath/u_idexreg/N20
*386 u_DataPath/u_idexreg/N200
*387 u_DataPath/u_idexreg/N201
*388 u_DataPath/u_idexreg/N202
*389 u_DataPath/u_idexreg/N203
*390 u_DataPath/u_idexreg/N204
*391 u_DataPath/u_idexreg/N205
*392 u_DataPath/u_idexreg/N21
*393 u_DataPath/u_idexreg/N22
*394 u_DataPath/u_idexreg/N23
*395 u_DataPath/u_idexreg/N24
*396 u_DataPath/u_idexreg/N3
*397 u_DataPath/u_idexreg/N4
*398 u_DataPath/u_idexreg/N5
*399 u_DataPath/u_idexreg/N57
*400 u_DataPath/u_idexreg/N58
*401 u_DataPath/u_idexreg/N59
*402 u_DataPath/u_idexreg/N6
*403 u_DataPath/u_idexreg/N60
*404 u_DataPath/u_idexreg/N61
*405 u_DataPath/u_idexreg/N62
*406 u_DataPath/u_idexreg/N63
*407 u_DataPath/u_idexreg/N64
*408 u_DataPath/u_idexreg/N65
*409 u_DataPath/u_idexreg/N66
*410 u_DataPath/u_idexreg/N67
*411 u_DataPath/u_idexreg/N68
*412 u_DataPath/u_idexreg/N69
*413 u_DataPath/u_idexreg/N7
*414 u_DataPath/u_idexreg/N70
*415 u_DataPath/u_idexreg/N71
*416 u_DataPath/u_idexreg/N72
*417 u_DataPath/u_idexreg/N73
*418 u_DataPath/u_idexreg/N74
*419 u_DataPath/u_idexreg/N75
*420 u_DataPath/u_idexreg/N76
*421 u_DataPath/u_idexreg/N77
*422 u_DataPath/u_idexreg/N78
*423 u_DataPath/u_idexreg/N79
*424 u_DataPath/u_idexreg/N8
*425 u_DataPath/u_idexreg/N80
*426 u_DataPath/u_idexreg/N81
*427 u_DataPath/u_idexreg/N82
*428 u_DataPath/u_idexreg/N83
*429 u_DataPath/u_idexreg/N84
*430 u_DataPath/u_idexreg/N85
*431 u_DataPath/u_idexreg/N86
*432 u_DataPath/u_idexreg/N87
*433 u_DataPath/u_idexreg/N88
*434 u_DataPath/u_idexreg/N9
*435 u_DataPath/u_idexreg/n215
*436 u_DataPath/u_fetch/pc1/n100
*437 u_DataPath/u_fetch/pc1/n132
*438 u_DataPath/u_fetch/pc1/n34
*439 u_DataPath/u_fetch/pc1/n35
*440 u_DataPath/u_fetch/pc1/n37
*441 u_DataPath/u_fetch/pc1/n38
*442 u_DataPath/u_fetch/pc1/n39
*443 u_DataPath/u_fetch/pc1/n40
*444 u_DataPath/u_fetch/pc1/n41
*445 u_DataPath/u_fetch/pc1/n42
*446 u_DataPath/u_fetch/pc1/n43
*447 u_DataPath/u_fetch/pc1/n44
*448 u_DataPath/u_fetch/pc1/n45
*449 u_DataPath/u_fetch/pc1/n46
*450 u_DataPath/u_fetch/pc1/n47
*451 u_DataPath/u_fetch/pc1/n48
*452 u_DataPath/u_fetch/pc1/n49
*453 u_DataPath/u_fetch/pc1/n50
*454 u_DataPath/u_fetch/pc1/n51
*455 u_DataPath/u_fetch/pc1/n52
*456 u_DataPath/u_fetch/pc1/n53
*457 u_DataPath/u_fetch/pc1/n54
*458 u_DataPath/u_fetch/pc1/n55
*459 u_DataPath/u_fetch/pc1/n56
*460 u_DataPath/u_fetch/pc1/n57
*461 u_DataPath/u_fetch/pc1/n58
*462 u_DataPath/u_fetch/pc1/n59
*463 u_DataPath/u_fetch/pc1/n60
*464 u_DataPath/u_fetch/pc1/n61
*465 u_DataPath/u_fetch/pc1/n62
*466 u_DataPath/u_fetch/pc1/n63
*467 u_DataPath/u_fetch/pc1/n64
*468 u_DataPath/u_fetch/pc1/n65
*469 u_DataPath/u_fetch/pc1/n66
*470 u_DataPath/u_fetch/pc1/n67
*471 u_DataPath/u_fetch/pc1/n68
*472 u_DataPath/u_fetch/pc1/n69
*473 u_DataPath/u_fetch/pc1/n70
*474 u_DataPath/u_fetch/pc1/n71
*475 u_DataPath/u_fetch/pc1/n72
*476 u_DataPath/u_fetch/pc1/n73
*477 u_DataPath/u_fetch/pc1/n74
*478 u_DataPath/u_fetch/pc1/n75
*479 u_DataPath/u_fetch/pc1/n76
*480 u_DataPath/u_fetch/pc1/n77
*481 u_DataPath/u_fetch/pc1/n78
*482 u_DataPath/u_fetch/pc1/n79
*483 u_DataPath/u_fetch/pc1/n80
*484 u_DataPath/u_fetch/pc1/n81
*485 u_DataPath/u_fetch/pc1/n82
*486 u_DataPath/u_fetch/pc1/n83
*487 u_DataPath/u_fetch/pc1/n84
*488 u_DataPath/u_fetch/pc1/n85
*489 u_DataPath/u_fetch/pc1/n86
*490 u_DataPath/u_fetch/pc1/n87
*491 u_DataPath/u_fetch/pc1/n88
*492 u_DataPath/u_fetch/pc1/n89
*493 u_DataPath/u_fetch/pc1/n90
*494 u_DataPath/u_fetch/pc1/n91
*495 u_DataPath/u_fetch/pc1/n92
*496 u_DataPath/u_fetch/pc1/n93
*497 u_DataPath/u_fetch/pc1/n94
*498 u_DataPath/u_fetch/pc1/n95
*499 u_DataPath/u_fetch/pc1/n96
*500 u_DataPath/u_fetch/pc1/n97
*501 u_DataPath/u_fetch/pc1/n98
*502 u_DataPath/u_fetch/pc1/n99
*503 u_DataPath/u_fetch/mux_jump1/n15
*504 u_DataPath/u_fetch/mux_jump1/n16
*505 u_DataPath/u_fetch/mux_jump1/n17
*506 u_DataPath/u_fetch/mux_jump1/n18
*507 u_DataPath/u_fetch/mux_branch1/n22
*508 u_DataPath/u_fetch/mux_branch1/n34
*509 u_DataPath/u_fetch/mux_branch1/n36
*510 u_DataPath/u_fetch/mux_branch1/n37
*511 u_DataPath/u_fetch/mux_branch1/n38
*512 u_DataPath/u_fetch/mux_branch1/n39
*513 u_DataPath/u_fetch/mux_branch1/n40
*514 u_DataPath/u_fetch/mux_branch1/n41
*515 u_DataPath/u_fetch/mux_branch1/n42
*516 u_DataPath/u_fetch/mux_branch1/n43
*517 u_DataPath/u_fetch/mux_branch1/n44
*518 u_DataPath/u_fetch/mux_branch1/n45
*519 u_DataPath/u_fetch/mux_branch1/n46
*520 u_DataPath/u_fetch/mux_branch1/n47
*521 u_DataPath/u_fetch/mux_branch1/n48
*522 u_DataPath/u_fetch/mux_branch1/n49
*523 u_DataPath/u_fetch/mux_branch1/n50
*524 u_DataPath/u_fetch/mux_branch1/n51
*525 u_DataPath/u_fetch/mux_branch1/n52
*526 u_DataPath/u_fetch/mux_branch1/n53
*527 u_DataPath/u_fetch/mux_branch1/n54
*528 u_DataPath/u_fetch/mux_branch1/n55
*529 u_DataPath/u_fetch/mux_branch1/n56
*530 u_DataPath/u_fetch/mux_branch1/n57
*531 u_DataPath/u_fetch/mux_branch1/n58
*532 u_DataPath/u_fetch/mux_branch1/n59
*533 u_DataPath/u_fetch/mux_branch1/n60
*534 u_DataPath/u_fetch/mux_branch1/n61
*535 u_DataPath/u_fetch/mux_branch1/n62
*536 u_DataPath/u_fetch/mux_branch1/n63
*537 u_DataPath/u_fetch/mux_branch1/n64
*538 u_DataPath/u_fetch/mux_branch1/n65
*539 u_DataPath/u_fetch/mux_branch1/n66
*540 u_DataPath/u_fetch/iram_block1/mmu_out/FE_PHN100_iram_data_12_
*541 u_DataPath/u_fetch/iram_block1/mmu_out/FE_PHN101_iram_data_1_
*542 u_DataPath/u_fetch/iram_block1/mmu_out/FE_PHN102_iram_data_0_
*543 u_DataPath/u_fetch/iram_block1/mmu_out/FE_PHN103_iram_data_11_
*544 u_DataPath/u_fetch/iram_block1/mmu_out/FE_PHN104_iram_data_27_
*545 u_DataPath/u_fetch/iram_block1/mmu_out/FE_PHN105_iram_data_5_
*546 u_DataPath/u_fetch/iram_block1/mmu_out/FE_PHN106_iram_data_15_
*547 u_DataPath/u_fetch/iram_block1/mmu_out/FE_PHN107_iram_data_13_
*548 u_DataPath/u_fetch/iram_block1/mmu_out/FE_PHN108_iram_data_3_
*549 u_DataPath/u_fetch/iram_block1/mmu_out/FE_PHN112_iram_data_18_
*550 u_DataPath/u_fetch/iram_block1/mmu_out/FE_PHN113_iram_data_19_
*551 u_DataPath/u_fetch/iram_block1/mmu_out/FE_PHN114_iram_data_22_
*552 u_DataPath/u_fetch/iram_block1/mmu_out/FE_PHN115_iram_data_17_
*553 u_DataPath/u_fetch/iram_block1/mmu_out/FE_PHN116_iram_data_20_
*554 u_DataPath/u_fetch/iram_block1/mmu_out/FE_PHN117_iram_data_21_
*555 u_DataPath/u_fetch/iram_block1/mmu_out/FE_PHN118_iram_data_2_
*556 u_DataPath/u_fetch/iram_block1/mmu_out/FE_PHN119_iram_data_16_
*557 u_DataPath/u_fetch/iram_block1/mmu_out/FE_PHN120_iram_data_6_
*558 u_DataPath/u_fetch/iram_block1/mmu_out/FE_PHN121_iram_data_8_
*559 u_DataPath/u_fetch/iram_block1/mmu_out/FE_PHN122_iram_data_7_
*560 u_DataPath/u_fetch/iram_block1/mmu_out/FE_PHN123_iram_data_31_
*561 u_DataPath/u_fetch/iram_block1/mmu_out/FE_PHN124_iram_data_10_
*562 u_DataPath/u_fetch/iram_block1/mmu_out/FE_PHN125_iram_data_24_
*563 u_DataPath/u_fetch/iram_block1/mmu_out/FE_PHN126_iram_data_29_
*564 u_DataPath/u_fetch/iram_block1/mmu_out/FE_PHN127_iram_data_23_
*565 u_DataPath/u_fetch/iram_block1/mmu_out/FE_PHN14_iram_data_5_
*566 u_DataPath/u_fetch/iram_block1/mmu_out/FE_PHN15_iram_data_0_
*567 u_DataPath/u_fetch/iram_block1/mmu_out/FE_PHN16_iram_data_1_
*568 u_DataPath/u_fetch/iram_block1/mmu_out/FE_PHN17_iram_data_7_
*569 u_DataPath/u_fetch/iram_block1/mmu_out/FE_PHN18_iram_data_3_
*570 u_DataPath/u_fetch/iram_block1/mmu_out/FE_PHN19_iram_data_15_
*571 u_DataPath/u_fetch/iram_block1/mmu_out/FE_PHN20_iram_data_12_
*572 u_DataPath/u_fetch/iram_block1/mmu_out/FE_PHN21_iram_data_11_
*573 u_DataPath/u_fetch/iram_block1/mmu_out/FE_PHN22_iram_data_13_
*574 u_DataPath/u_fetch/iram_block1/mmu_out/FE_PHN23_iram_data_4_
*575 u_DataPath/u_fetch/iram_block1/mmu_out/FE_PHN39_iram_data_6_
*576 u_DataPath/u_fetch/iram_block1/mmu_out/FE_PHN40_iram_data_8_
*577 u_DataPath/u_fetch/iram_block1/mmu_out/FE_PHN41_iram_data_2_
*578 u_DataPath/u_fetch/iram_block1/mmu_out/FE_PHN44_iram_data_27_
*579 u_DataPath/u_fetch/iram_block1/mmu_out/FE_PHN46_iram_data_25_
*580 u_DataPath/u_fetch/iram_block1/mmu_out/FE_PHN47_iram_data_23_
*581 u_DataPath/u_fetch/iram_block1/mmu_out/FE_PHN48_iram_data_9_
*582 u_DataPath/u_fetch/iram_block1/mmu_out/FE_PHN49_iram_data_29_
*583 u_DataPath/u_fetch/iram_block1/mmu_out/FE_PHN50_iram_data_14_
*584 u_DataPath/u_fetch/iram_block1/mmu_out/FE_PHN51_iram_data_5_
*585 u_DataPath/u_fetch/iram_block1/mmu_out/FE_PHN52_iram_data_11_
*586 u_DataPath/u_fetch/iram_block1/mmu_out/FE_PHN53_iram_data_12_
*587 u_DataPath/u_fetch/iram_block1/mmu_out/FE_PHN54_iram_data_0_
*588 u_DataPath/u_fetch/iram_block1/mmu_out/FE_PHN55_iram_data_13_
*589 u_DataPath/u_fetch/iram_block1/mmu_out/FE_PHN56_iram_data_3_
*590 u_DataPath/u_fetch/iram_block1/mmu_out/FE_PHN57_iram_data_4_
*591 u_DataPath/u_fetch/iram_block1/mmu_out/FE_PHN58_iram_data_1_
*592 u_DataPath/u_fetch/iram_block1/mmu_out/FE_PHN59_iram_data_15_
*593 u_DataPath/u_fetch/iram_block1/mmu_out/FE_PHN60_iram_data_16_
*594 u_DataPath/u_fetch/iram_block1/mmu_out/FE_PHN61_iram_data_21_
*595 u_DataPath/u_fetch/iram_block1/mmu_out/FE_PHN62_iram_data_18_
*596 u_DataPath/u_fetch/iram_block1/mmu_out/FE_PHN63_iram_data_31_
*597 u_DataPath/u_fetch/iram_block1/mmu_out/FE_PHN64_iram_data_19_
*598 u_DataPath/u_fetch/iram_block1/mmu_out/FE_PHN65_iram_data_22_
*599 u_DataPath/u_fetch/iram_block1/mmu_out/FE_PHN66_iram_data_20_
*600 u_DataPath/u_fetch/iram_block1/mmu_out/FE_PHN67_iram_data_17_
*601 u_DataPath/u_fetch/iram_block1/mmu_out/FE_PHN68_iram_data_10_
*602 u_DataPath/u_fetch/iram_block1/mmu_out/FE_PHN69_iram_data_24_
*603 u_DataPath/u_fetch/iram_block1/mmu_out/FE_PHN70_iram_data_2_
*604 u_DataPath/u_fetch/iram_block1/mmu_out/FE_PHN71_iram_data_6_
*605 u_DataPath/u_fetch/iram_block1/mmu_out/FE_PHN72_iram_data_8_
*606 u_DataPath/u_fetch/iram_block1/mmu_out/FE_PHN76_iram_data_7_
*607 u_DataPath/u_fetch/iram_block1/mmu_out/FE_PHN80_iram_data_19_
*608 u_DataPath/u_fetch/iram_block1/mmu_out/FE_PHN81_iram_data_21_
*609 u_DataPath/u_fetch/iram_block1/mmu_out/FE_PHN82_iram_data_18_
*610 u_DataPath/u_fetch/iram_block1/mmu_out/FE_PHN83_iram_data_17_
*611 u_DataPath/u_fetch/iram_block1/mmu_out/FE_PHN84_iram_data_20_
*612 u_DataPath/u_fetch/iram_block1/mmu_out/FE_PHN85_iram_data_29_
*613 u_DataPath/u_fetch/iram_block1/mmu_out/FE_PHN86_iram_data_16_
*614 u_DataPath/u_fetch/iram_block1/mmu_out/FE_PHN87_iram_data_6_
*615 u_DataPath/u_fetch/iram_block1/mmu_out/FE_PHN88_iram_data_8_
*616 u_DataPath/u_fetch/iram_block1/mmu_out/FE_PHN89_iram_data_31_
*617 u_DataPath/u_fetch/iram_block1/mmu_out/FE_PHN90_iram_data_10_
*618 u_DataPath/u_fetch/iram_block1/mmu_out/FE_PHN91_iram_data_25_
*619 u_DataPath/u_fetch/iram_block1/mmu_out/FE_PHN92_iram_data_24_
*620 u_DataPath/u_fetch/iram_block1/mmu_out/FE_PHN93_iram_data_22_
*621 u_DataPath/u_fetch/iram_block1/mmu_out/FE_PHN94_iram_data_2_
*622 u_DataPath/u_fetch/iram_block1/mmu_out/FE_PHN95_iram_data_7_
*623 u_DataPath/u_fetch/iram_block1/mmu_out/FE_PHN96_iram_data_23_
*624 u_DataPath/u_fetch/iram_block1/mmu_out/FE_PHN97_iram_data_4_
*625 u_DataPath/u_fetch/iram_block1/mmu_out/FE_PHN98_iram_data_9_
*626 u_DataPath/u_fetch/iram_block1/mmu_out/FE_PHN99_iram_data_14_
*627 u_DataPath/u_fetch/iram_block1/mmu_out/n2
*628 u_DataPath/u_fetch/inc_pc1/add_33/n1
*629 u_DataPath/u_fetch/inc_pc1/add_33/carry\[10\]
*630 u_DataPath/u_fetch/inc_pc1/add_33/carry\[11\]
*631 u_DataPath/u_fetch/inc_pc1/add_33/carry\[12\]
*632 u_DataPath/u_fetch/inc_pc1/add_33/carry\[13\]
*633 u_DataPath/u_fetch/inc_pc1/add_33/carry\[14\]
*634 u_DataPath/u_fetch/inc_pc1/add_33/carry\[15\]
*635 u_DataPath/u_fetch/inc_pc1/add_33/carry\[16\]
*636 u_DataPath/u_fetch/inc_pc1/add_33/carry\[17\]
*637 u_DataPath/u_fetch/inc_pc1/add_33/carry\[18\]
*638 u_DataPath/u_fetch/inc_pc1/add_33/carry\[19\]
*639 u_DataPath/u_fetch/inc_pc1/add_33/carry\[20\]
*640 u_DataPath/u_fetch/inc_pc1/add_33/carry\[21\]
*641 u_DataPath/u_fetch/inc_pc1/add_33/carry\[22\]
*642 u_DataPath/u_fetch/inc_pc1/add_33/carry\[23\]
*643 u_DataPath/u_fetch/inc_pc1/add_33/carry\[24\]
*644 u_DataPath/u_fetch/inc_pc1/add_33/carry\[25\]
*645 u_DataPath/u_fetch/inc_pc1/add_33/carry\[26\]
*646 u_DataPath/u_fetch/inc_pc1/add_33/carry\[27\]
*647 u_DataPath/u_fetch/inc_pc1/add_33/carry\[28\]
*648 u_DataPath/u_fetch/inc_pc1/add_33/carry\[29\]
*649 u_DataPath/u_fetch/inc_pc1/add_33/carry\[30\]
*650 u_DataPath/u_fetch/inc_pc1/add_33/carry\[4\]
*651 u_DataPath/u_fetch/inc_pc1/add_33/carry\[5\]
*652 u_DataPath/u_fetch/inc_pc1/add_33/carry\[6\]
*653 u_DataPath/u_fetch/inc_pc1/add_33/carry\[7\]
*654 u_DataPath/u_fetch/inc_pc1/add_33/carry\[8\]
*655 u_DataPath/u_fetch/inc_pc1/add_33/carry\[9\]
*656 u_DataPath/u_fetch/data_mux_branch_i[0]
*657 u_DataPath/u_fetch/data_mux_branch_i[10]
*658 u_DataPath/u_fetch/data_mux_branch_i[11]
*659 u_DataPath/u_fetch/data_mux_branch_i[12]
*660 u_DataPath/u_fetch/data_mux_branch_i[13]
*661 u_DataPath/u_fetch/data_mux_branch_i[14]
*662 u_DataPath/u_fetch/data_mux_branch_i[15]
*663 u_DataPath/u_fetch/data_mux_branch_i[16]
*664 u_DataPath/u_fetch/data_mux_branch_i[17]
*665 u_DataPath/u_fetch/data_mux_branch_i[18]
*666 u_DataPath/u_fetch/data_mux_branch_i[19]
*667 u_DataPath/u_fetch/data_mux_branch_i[1]
*668 u_DataPath/u_fetch/data_mux_branch_i[20]
*669 u_DataPath/u_fetch/data_mux_branch_i[21]
*670 u_DataPath/u_fetch/data_mux_branch_i[22]
*671 u_DataPath/u_fetch/data_mux_branch_i[23]
*672 u_DataPath/u_fetch/data_mux_branch_i[24]
*673 u_DataPath/u_fetch/data_mux_branch_i[25]
*674 u_DataPath/u_fetch/data_mux_branch_i[26]
*675 u_DataPath/u_fetch/data_mux_branch_i[27]
*676 u_DataPath/u_fetch/data_mux_branch_i[28]
*677 u_DataPath/u_fetch/data_mux_branch_i[29]
*678 u_DataPath/u_fetch/data_mux_branch_i[2]
*679 u_DataPath/u_fetch/data_mux_branch_i[30]
*680 u_DataPath/u_fetch/data_mux_branch_i[31]
*681 u_DataPath/u_fetch/data_mux_branch_i[3]
*682 u_DataPath/u_fetch/data_mux_branch_i[4]
*683 u_DataPath/u_fetch/data_mux_branch_i[5]
*684 u_DataPath/u_fetch/data_mux_branch_i[6]
*685 u_DataPath/u_fetch/data_mux_branch_i[7]
*686 u_DataPath/u_fetch/data_mux_branch_i[8]
*687 u_DataPath/u_fetch/data_mux_branch_i[9]
*688 u_DataPath/u_fetch/data_mux_jump_i[0]
*689 u_DataPath/u_fetch/data_mux_jump_i[10]
*690 u_DataPath/u_fetch/data_mux_jump_i[11]
*691 u_DataPath/u_fetch/data_mux_jump_i[12]
*692 u_DataPath/u_fetch/data_mux_jump_i[13]
*693 u_DataPath/u_fetch/data_mux_jump_i[14]
*694 u_DataPath/u_fetch/data_mux_jump_i[15]
*695 u_DataPath/u_fetch/data_mux_jump_i[16]
*696 u_DataPath/u_fetch/data_mux_jump_i[17]
*697 u_DataPath/u_fetch/data_mux_jump_i[18]
*698 u_DataPath/u_fetch/data_mux_jump_i[19]
*699 u_DataPath/u_fetch/data_mux_jump_i[1]
*700 u_DataPath/u_fetch/data_mux_jump_i[20]
*701 u_DataPath/u_fetch/data_mux_jump_i[21]
*702 u_DataPath/u_fetch/data_mux_jump_i[22]
*703 u_DataPath/u_fetch/data_mux_jump_i[23]
*704 u_DataPath/u_fetch/data_mux_jump_i[24]
*705 u_DataPath/u_fetch/data_mux_jump_i[25]
*706 u_DataPath/u_fetch/data_mux_jump_i[26]
*707 u_DataPath/u_fetch/data_mux_jump_i[27]
*708 u_DataPath/u_fetch/data_mux_jump_i[28]
*709 u_DataPath/u_fetch/data_mux_jump_i[29]
*710 u_DataPath/u_fetch/data_mux_jump_i[2]
*711 u_DataPath/u_fetch/data_mux_jump_i[30]
*712 u_DataPath/u_fetch/data_mux_jump_i[31]
*713 u_DataPath/u_fetch/data_mux_jump_i[3]
*714 u_DataPath/u_fetch/data_mux_jump_i[4]
*715 u_DataPath/u_fetch/data_mux_jump_i[5]
*716 u_DataPath/u_fetch/data_mux_jump_i[6]
*717 u_DataPath/u_fetch/data_mux_jump_i[7]
*718 u_DataPath/u_fetch/data_mux_jump_i[8]
*719 u_DataPath/u_fetch/data_mux_jump_i[9]
*720 u_DataPath/u_exmemreg/FE_OFN4_n147
*721 u_DataPath/u_exmemreg/FE_OFN5_n147
*722 u_DataPath/u_exmemreg/N10
*723 u_DataPath/u_exmemreg/N100
*724 u_DataPath/u_exmemreg/N101
*725 u_DataPath/u_exmemreg/N102
*726 u_DataPath/u_exmemreg/N103
*727 u_DataPath/u_exmemreg/N104
*728 u_DataPath/u_exmemreg/N105
*729 u_DataPath/u_exmemreg/N106
*730 u_DataPath/u_exmemreg/N107
*731 u_DataPath/u_exmemreg/N108
*732 u_DataPath/u_exmemreg/N109
*733 u_DataPath/u_exmemreg/N11
*734 u_DataPath/u_exmemreg/N110
*735 u_DataPath/u_exmemreg/N111
*736 u_DataPath/u_exmemreg/N112
*737 u_DataPath/u_exmemreg/N113
*738 u_DataPath/u_exmemreg/N114
*739 u_DataPath/u_exmemreg/N115
*740 u_DataPath/u_exmemreg/N116
*741 u_DataPath/u_exmemreg/N117
*742 u_DataPath/u_exmemreg/N118
*743 u_DataPath/u_exmemreg/N119
*744 u_DataPath/u_exmemreg/N12
*745 u_DataPath/u_exmemreg/N120
*746 u_DataPath/u_exmemreg/N121
*747 u_DataPath/u_exmemreg/N122
*748 u_DataPath/u_exmemreg/N123
*749 u_DataPath/u_exmemreg/N124
*750 u_DataPath/u_exmemreg/N125
*751 u_DataPath/u_exmemreg/N126
*752 u_DataPath/u_exmemreg/N127
*753 u_DataPath/u_exmemreg/N128
*754 u_DataPath/u_exmemreg/N129
*755 u_DataPath/u_exmemreg/N13
*756 u_DataPath/u_exmemreg/N130
*757 u_DataPath/u_exmemreg/N131
*758 u_DataPath/u_exmemreg/N132
*759 u_DataPath/u_exmemreg/N133
*760 u_DataPath/u_exmemreg/N134
*761 u_DataPath/u_exmemreg/N135
*762 u_DataPath/u_exmemreg/N136
*763 u_DataPath/u_exmemreg/N137
*764 u_DataPath/u_exmemreg/N138
*765 u_DataPath/u_exmemreg/N139
*766 u_DataPath/u_exmemreg/N14
*767 u_DataPath/u_exmemreg/N140
*768 u_DataPath/u_exmemreg/N141
*769 u_DataPath/u_exmemreg/N142
*770 u_DataPath/u_exmemreg/N143
*771 u_DataPath/u_exmemreg/N144
*772 u_DataPath/u_exmemreg/N145
*773 u_DataPath/u_exmemreg/N146
*774 u_DataPath/u_exmemreg/N147
*775 u_DataPath/u_exmemreg/N15
*776 u_DataPath/u_exmemreg/N16
*777 u_DataPath/u_exmemreg/N17
*778 u_DataPath/u_exmemreg/N18
*779 u_DataPath/u_exmemreg/N19
*780 u_DataPath/u_exmemreg/N20
*781 u_DataPath/u_exmemreg/N21
*782 u_DataPath/u_exmemreg/N22
*783 u_DataPath/u_exmemreg/N23
*784 u_DataPath/u_exmemreg/N24
*785 u_DataPath/u_exmemreg/N25
*786 u_DataPath/u_exmemreg/N26
*787 u_DataPath/u_exmemreg/N27
*788 u_DataPath/u_exmemreg/N28
*789 u_DataPath/u_exmemreg/N29
*790 u_DataPath/u_exmemreg/N3
*791 u_DataPath/u_exmemreg/N30
*792 u_DataPath/u_exmemreg/N31
*793 u_DataPath/u_exmemreg/N32
*794 u_DataPath/u_exmemreg/N33
*795 u_DataPath/u_exmemreg/N34
*796 u_DataPath/u_exmemreg/N35
*797 u_DataPath/u_exmemreg/N36
*798 u_DataPath/u_exmemreg/N37
*799 u_DataPath/u_exmemreg/N38
*800 u_DataPath/u_exmemreg/N39
*801 u_DataPath/u_exmemreg/N4
*802 u_DataPath/u_exmemreg/N40
*803 u_DataPath/u_exmemreg/N41
*804 u_DataPath/u_exmemreg/N42
*805 u_DataPath/u_exmemreg/N43
*806 u_DataPath/u_exmemreg/N44
*807 u_DataPath/u_exmemreg/N45
*808 u_DataPath/u_exmemreg/N46
*809 u_DataPath/u_exmemreg/N47
*810 u_DataPath/u_exmemreg/N48
*811 u_DataPath/u_exmemreg/N49
*812 u_DataPath/u_exmemreg/N5
*813 u_DataPath/u_exmemreg/N50
*814 u_DataPath/u_exmemreg/N51
*815 u_DataPath/u_exmemreg/N52
*816 u_DataPath/u_exmemreg/N53
*817 u_DataPath/u_exmemreg/N54
*818 u_DataPath/u_exmemreg/N55
*819 u_DataPath/u_exmemreg/N56
*820 u_DataPath/u_exmemreg/N57
*821 u_DataPath/u_exmemreg/N58
*822 u_DataPath/u_exmemreg/N59
*823 u_DataPath/u_exmemreg/N6
*824 u_DataPath/u_exmemreg/N60
*825 u_DataPath/u_exmemreg/N61
*826 u_DataPath/u_exmemreg/N62
*827 u_DataPath/u_exmemreg/N63
*828 u_DataPath/u_exmemreg/N64
*829 u_DataPath/u_exmemreg/N65
*830 u_DataPath/u_exmemreg/N66
*831 u_DataPath/u_exmemreg/N67
*832 u_DataPath/u_exmemreg/N68
*833 u_DataPath/u_exmemreg/N69
*834 u_DataPath/u_exmemreg/N7
*835 u_DataPath/u_exmemreg/N70
*836 u_DataPath/u_exmemreg/N71